
---------- Begin Simulation Statistics ----------
simSeconds                                   0.000011                       # Number of seconds simulated (Second)
simTicks                                     10944163                       # Number of ticks simulated (Tick)
finalTick                                    10944163                       # Number of ticks from beginning of simulation (restored from checkpoints and never reset) (Tick)
simFreq                                  1000000000000                       # The number of ticks per simulated second ((Tick/Second))
hostSeconds                                      0.00                       # Real time elapsed on the host (Second)
hostTickRate                              33900490038                       # The number of ticks simulated per host second (ticks/s) ((Tick/Second))
hostMemory                                      95532                       # Number of bytes of host memory used (Byte)

---------- End Simulation Statistics   ----------
